LAMMPS (2 Aug 2023 - Update 3)
units lj
atom_style atomic
lattice fcc 0.6
Lattice spacing in x,y,z = 1.8820721 1.8820721 1.8820721
region box block 0 10 0 10 0 20
create_box 1 box
Created orthogonal box = (0 0 0) to (18.820721 18.820721 37.641441)
create_atoms 1 box
Created 8000 atoms
mass 1 1.0
velocity all create 1.35 71717
pair_style lj/cut 2.5
pair_coeff 1 1 1.0 1.0
neighbor 0.3 bin

region hot block INF INF INF INF 0 1
region cold block INF INF INF INF 10 11

compute Thot all temp/region hot
compute Tcold all temp/region cold

# 1st Equilibration run
fix 1 all nvt temp 1.35 1.35 0.5
thermo 100
run 1000
Generated 0 of 0 mixed pair_coeff terms from geometric mixing rule
Step          Temp          E_pair         E_mol          TotEng         Press
0   1.35          -4.1241917      0             -2.0994448     -3.1961613
Averages over the last 6 of 11 rows, steps 500 to 1000:
Temp E_pair E_mol TotEng Press
1.35572 -3.71138 0 -1.67806 0.815749
Loop time of 4.99388 on 1 procs for 1000 steps with 8000 atoms

velocity all scale 1.35
unfix 1

# 2nd Equilibration run
fix 1 all nve
fix hot all heat 1 100.0 region hot
fix cold all heat 1 -100.0 region cold
thermo_style custom step temp c_Thot c_Tcold
thermo 1000
run 10000
Generated 0 of 0 mixed pair_coeff terms from geometric mixing rule
Step          Temp          c_Thot        c_Tcold
1000   1.35           1.2971482      1.3123754
Averages over the last 6 of 11 rows, steps 6000 to 11000:
Temp c_Thot c_Tcold
1.36452 1.68125 1.11955
Loop time of 54.3953 on 1 procs for 10000 steps with 8000 atoms

compute ke all ke/atom
variable temp atom c_ke/1.5

compute layers all chunk/atom bin/1d z lower 0.05 units reduced
fix 2 all ave/chunk 10 100 1000 layers v_temp file profile.heat
variable tdiff equal f_2[11][3]-f_2[1][3]

fix ave all ave/time 1 1 1000 v_tdiff ave running start 13000
thermo_style custom step temp c_Thot c_Tcold v_tdiff f_ave
run 20000
Generated 0 of 0 mixed pair_coeff terms from geometric mixing rule
Step          Temp          c_Thot        c_Tcold        v_tdiff         f_ave
11000   1.3707377      1.808038       1.066729       0              0
Averages over the last 11 of 21 rows, steps 21000 to 31000:
Temp c_Thot c_Tcold v_tdiff f_ave
1.37568 1.85873 1.07043 -0.743083 -0.746591
Loop time of 110.627 on 1 procs for 20000 steps with 8000 atoms
