LAMMPS (2 Aug 2023 - Update 3)
# Initialization
units metal
boundary p p p
atom_style atomic

# Generate NiCu nanoparticles
variable A0 equal 3.589
lattice fcc 3.589
Lattice spacing in x,y,z = 3.589 3.589 3.589
region mybox block 0 40 0 40 0 40
create_box 2 mybox                         # 2 types of atoms
Created orthogonal box = (0 0 0) to (143.56 143.56 143.56)
region CuNi_nano sphere 20 20 20 2
create_atoms 1 region CuNi_nano
Created 141 atoms
set type 1 type/fraction 2 0.5 6666
Setting atom values ...
  76 settings made for type/fraction
mass 1 63.54600000                         # Cu
mass 2 58.69340000                         # Ni

# Using eam potential
pair_style eam/alloy
pair_coeff * * CuNi.eam.alloy Cu Ni
Reading eam/alloy potential file CuNi.eam.alloy with DATE: 2014-07-11
write_data nanoparticle.cif
System init for write_data ...
run 0
Step          Temp          E_pair         E_mol          TotEng         Press
0   0             -432.52609      0             -432.52609     -37.277343
Loop time of 1.088e-06 on 1 procs for 0 steps with 141 atoms

# Thermal equilibrium step
thermo 1000
variable j loop 0 20
label loop_j
variable temperature equal 900+10*$j
variable temperature equal 900+10*0
variable T equal temp
variable Eatom equal etotal/atoms
fix 1 all nvt temp 900 900 0.1
run 50000
Step          Temp          E_pair         E_mol          TotEng         Press
0   0             -432.52609      0             -432.52609     -37.277343
Averages over the last 26 of 51 rows, steps 25000 to 50000:
Temp E_pair E_mol TotEng Press
909.324 -423.236 0 -406.781 -0.76051
Loop time of 11.1157 on 1 procs for 50000 steps with 141 atoms

unfix 1

# Statistical step
fix 2 all ave/time 100 5 1000 v_T v_Eatom file data_ave900.txt
dump 1 all atom 5000 fusion_900.atom
fix 1 all nvt temp 900 900 0.1
run 500000
Step          Temp          E_pair         E_mol          TotEng         Press
50000   866.34642     -424.39896      0             -408.72119      4.571148
Averages over the last 251 of 501 rows, steps 300000 to 550000:
Temp E_pair E_mol TotEng Press
905.094 -436.484 0 -420.105 -0.257655
Loop time of 111.969 on 1 procs for 500000 steps with 141 atoms

unfix 1
undump 1
next j
jump SELF loop_j
variable temperature equal 900+10*$j
variable temperature equal 900+10*1
variable T equal temp
variable Eatom equal etotal/atoms
fix 1 all nvt temp 910 910 0.1
run 50000
Step          Temp          E_pair         E_mol          TotEng         Press
550000   933.39831     -437.34082      0             -420.44966     -4.1816976
Averages over the last 26 of 51 rows, steps 575000 to 600000:
Temp E_pair E_mol TotEng Press
905.781 -436.693 0 -420.301 -0.911103
Loop time of 11.2297 on 1 procs for 50000 steps with 141 atoms

unfix 1

# Statistical step
fix 2 all ave/time 100 5 1000 v_T v_Eatom file data_ave910.txt
dump 1 all atom 5000 fusion_910.atom
fix 1 all nvt temp 910 910 0.1
run 500000
Step          Temp          E_pair         E_mol          TotEng         Press
600000   890.5073      -435.01699      0             -418.902       -15.76467
Averages over the last 251 of 501 rows, steps 850000 to 1100000:
Temp E_pair E_mol TotEng Press
906.199 -435.92 0 -419.521 0.147241
Loop time of 116.804 on 1 procs for 500000 steps with 141 atoms

unfix 1
undump 1
next j
jump SELF loop_j
variable temperature equal 900+10*$j
variable temperature equal 900+10*2
variable T equal temp
variable Eatom equal etotal/atoms
fix 1 all nvt temp 920 920 0.1
run 50000
Step          Temp          E_pair         E_mol          TotEng         Press
1100000   977.66507     -436.7707       0             -419.07846      5.1411966
Averages over the last 26 of 51 rows, steps 1125000 to 1150000:
Temp E_pair E_mol TotEng Press
916.689 -436.104 0 -419.515 -0.107512
Loop time of 12.2848 on 1 procs for 50000 steps with 141 atoms

unfix 1

# Statistical step
fix 2 all ave/time 100 5 1000 v_T v_Eatom file data_ave920.txt
dump 1 all atom 5000 fusion_920.atom
fix 1 all nvt temp 920 920 0.1
run 500000
Step          Temp          E_pair         E_mol          TotEng         Press
1150000   911.70107     -435.68117      0             -419.18264     -8.0023998
Averages over the last 251 of 501 rows, steps 1400000 to 1650000:
Temp E_pair E_mol TotEng Press
915.338 -435.082 0 -418.518 0.0880508
Loop time of 123.041 on 1 procs for 500000 steps with 141 atoms

unfix 1
undump 1
next j
jump SELF loop_j
variable temperature equal 900+10*$j
variable temperature equal 900+10*3
variable T equal temp
variable Eatom equal etotal/atoms
fix 1 all nvt temp 930 930 0.1
run 50000
Step          Temp          E_pair         E_mol          TotEng         Press
1650000   942.6616      -433.88049      0             -416.82169      5.8684572
Averages over the last 26 of 51 rows, steps 1675000 to 1700000:
Temp E_pair E_mol TotEng Press
918.746 -435.311 0 -418.685 -0.449052
Loop time of 12.3907 on 1 procs for 50000 steps with 141 atoms

unfix 1

# Statistical step
fix 2 all ave/time 100 5 1000 v_T v_Eatom file data_ave930.txt
dump 1 all atom 5000 fusion_930.atom
fix 1 all nvt temp 930 930 0.1
run 500000
Step          Temp          E_pair         E_mol          TotEng         Press
1700000   992.55807     -434.21752      0             -416.25578     -2.5195926
Averages over the last 251 of 501 rows, steps 1950000 to 2200000:
Temp E_pair E_mol TotEng Press
933.79 -430.583 0 -413.684 0.950605
Loop time of 116.296 on 1 procs for 500000 steps with 141 atoms

unfix 1
undump 1
next j
jump SELF loop_j
variable temperature equal 900+10*$j
variable temperature equal 900+10*4
variable T equal temp
variable Eatom equal etotal/atoms
fix 1 all nvt temp 940 940 0.1
run 50000
Step          Temp          E_pair         E_mol          TotEng         Press
2200000   899.62504     -434.11483      0             -417.83483     -5.11594
Averages over the last 26 of 51 rows, steps 2225000 to 2250000:
Temp E_pair E_mol TotEng Press
945.316 -434.214 0 -417.108 -1.08694
Loop time of 11.2047 on 1 procs for 50000 steps with 141 atoms

unfix 1

# Statistical step
fix 2 all ave/time 100 5 1000 v_T v_Eatom file data_ave940.txt
dump 1 all atom 5000 fusion_940.atom
fix 1 all nvt temp 940 940 0.1
run 500000
Step          Temp          E_pair         E_mol          TotEng         Press
2250000   879.3883      -434.93392      0             -419.02014     -3.466636
Averages over the last 251 of 501 rows, steps 2500000 to 2750000:
Temp E_pair E_mol TotEng Press
944.727 -434.21 0 -417.113 0.273575
Loop time of 111.72 on 1 procs for 500000 steps with 141 atoms

unfix 1
undump 1
next j
jump SELF loop_j
variable temperature equal 900+10*$j
variable temperature equal 900+10*5
variable T equal temp
variable Eatom equal etotal/atoms
fix 1 all nvt temp 950 950 0.1
run 50000
Step          Temp          E_pair         E_mol          TotEng         Press
2750000   1075.2789     -432.73709      0             -413.27839      8.8728667
Averages over the last 26 of 51 rows, steps 2775000 to 2800000:
Temp E_pair E_mol TotEng Press
949.142 -434.049 0 -416.873 -0.419254
Loop time of 11.1856 on 1 procs for 50000 steps with 141 atoms

unfix 1

# Statistical step
fix 2 all ave/time 100 5 1000 v_T v_Eatom file data_ave950.txt
dump 1 all atom 5000 fusion_950.atom
fix 1 all nvt temp 950 950 0.1
run 500000
Step          Temp          E_pair         E_mol          TotEng         Press
2800000   936.86446     -433.80509      0             -416.85119      1.965813
Averages over the last 251 of 501 rows, steps 3050000 to 3300000:
Temp E_pair E_mol TotEng Press
956.692 -433.934 0 -416.621 0.457183
Loop time of 111.962 on 1 procs for 500000 steps with 141 atoms

unfix 1
undump 1
next j
jump SELF loop_j
variable temperature equal 900+10*$j
variable temperature equal 900+10*6
variable T equal temp
variable Eatom equal etotal/atoms
fix 1 all nvt temp 960 960 0.1
run 50000
Step          Temp          E_pair         E_mol          TotEng         Press
3300000   859.41489     -435.42929      0             -419.87696     -1.7644281
Averages over the last 26 of 51 rows, steps 3325000 to 3350000:
Temp E_pair E_mol TotEng Press
936.341 -434.06 0 -417.116 1.2094
Loop time of 11.1908 on 1 procs for 50000 steps with 141 atoms

unfix 1

# Statistical step
fix 2 all ave/time 100 5 1000 v_T v_Eatom file data_ave960.txt
dump 1 all atom 5000 fusion_960.atom
fix 1 all nvt temp 960 960 0.1
run 500000
Step          Temp          E_pair         E_mol          TotEng         Press
3350000   800.19622     -431.24937      0             -416.76868      2.7582641
Averages over the last 251 of 501 rows, steps 3600000 to 3850000:
Temp E_pair E_mol TotEng Press
961.353 -431.767 0 -414.37 -0.0149609
Loop time of 111.55 on 1 procs for 500000 steps with 141 atoms

unfix 1
undump 1
next j
jump SELF loop_j
variable temperature equal 900+10*$j
variable temperature equal 900+10*7
variable T equal temp
variable Eatom equal etotal/atoms
fix 1 all nvt temp 970 970 0.1
run 50000
Step          Temp          E_pair         E_mol          TotEng         Press
3850000   972.40015     -425.58541      0             -407.98845     -1.9548591
Averages over the last 26 of 51 rows, steps 3875000 to 3900000:
Temp E_pair E_mol TotEng Press
966.583 -426.095 0 -408.603 0.527331
Loop time of 11.1225 on 1 procs for 50000 steps with 141 atoms

unfix 1

# Statistical step
fix 2 all ave/time 100 5 1000 v_T v_Eatom file data_ave970.txt
dump 1 all atom 5000 fusion_970.atom
fix 1 all nvt temp 970 970 0.1
run 500000
Step          Temp          E_pair         E_mol          TotEng         Press
3900000   951.40314     -427.98873      0             -410.77174     -2.0919627
Averages over the last 251 of 501 rows, steps 4150000 to 4400000:
Temp E_pair E_mol TotEng Press
965.878 -426.499 0 -409.021 -0.56754
Loop time of 110.007 on 1 procs for 500000 steps with 141 atoms

unfix 1
undump 1
next j
jump SELF loop_j
variable temperature equal 900+10*$j
variable temperature equal 900+10*8
variable T equal temp
variable Eatom equal etotal/atoms
fix 1 all nvt temp 980 980 0.1
run 50000
Step          Temp          E_pair         E_mol          TotEng         Press
4400000   928.06826     -427.61504      0             -410.82033      5.3290317
Averages over the last 26 of 51 rows, steps 4425000 to 4450000:
Temp E_pair E_mol TotEng Press
969.469 -426.973 0 -409.43 -1.35199
Loop time of 11.0195 on 1 procs for 50000 steps with 141 atoms

unfix 1

# Statistical step
fix 2 all ave/time 100 5 1000 v_T v_Eatom file data_ave980.txt
dump 1 all atom 5000 fusion_980.atom
fix 1 all nvt temp 980 980 0.1
run 500000
Step          Temp          E_pair         E_mol          TotEng         Press
4450000   1029.9587     -427.64767      0             -409.00911      0.59476006
Averages over the last 251 of 501 rows, steps 4700000 to 4950000:
Temp E_pair E_mol TotEng Press
976.109 -429.899 0 -412.235 0.524204
Loop time of 110.847 on 1 procs for 500000 steps with 141 atoms

unfix 1
undump 1
next j
jump SELF loop_j
variable temperature equal 900+10*$j
variable temperature equal 900+10*9
variable T equal temp
variable Eatom equal etotal/atoms
fix 1 all nvt temp 990 990 0.1
run 50000
Step          Temp          E_pair         E_mol          TotEng         Press
4950000   1010.2607     -424.16256      0             -405.88046      1.3630126
Averages over the last 26 of 51 rows, steps 4975000 to 5000000:
Temp E_pair E_mol TotEng Press
993.707 -426.637 0 -408.655 -2.39402
Loop time of 11.0296 on 1 procs for 50000 steps with 141 atoms

unfix 1

# Statistical step
fix 2 all ave/time 100 5 1000 v_T v_Eatom file data_ave990.txt
dump 1 all atom 5000 fusion_990.atom
fix 1 all nvt temp 990 990 0.1
run 500000
Step          Temp          E_pair         E_mol          TotEng         Press
5000000   839.6911      -424.1451       0             -408.9497      -2.7831944
Averages over the last 251 of 501 rows, steps 5250000 to 5500000:
Temp E_pair E_mol TotEng Press
992.122 -425.734 0 -407.78 -0.0631242
Loop time of 110.645 on 1 procs for 500000 steps with 141 atoms

unfix 1
undump 1
next j
jump SELF loop_j
variable temperature equal 900+10*$j
variable temperature equal 900+10*10
variable T equal temp
variable Eatom equal etotal/atoms
fix 1 all nvt temp 1000 1000 0.1
run 50000
Step          Temp          E_pair         E_mol          TotEng         Press
5500000   966.41331     -428.33992      0             -410.8513       6.6283448
Averages over the last 26 of 51 rows, steps 5525000 to 5550000:
Temp E_pair E_mol TotEng Press
999.657 -425.149 0 -407.059 0.792339
Loop time of 11.0125 on 1 procs for 50000 steps with 141 atoms

unfix 1

# Statistical step
fix 2 all ave/time 100 5 1000 v_T v_Eatom file data_ave1000.txt
dump 1 all atom 5000 fusion_1000.atom
fix 1 all nvt temp 1000 1000 0.1
run 500000
Step          Temp          E_pair         E_mol          TotEng         Press
5550000   1038.8115     -424.39318      0             -405.59442      6.1489209
Averages over the last 251 of 501 rows, steps 5800000 to 6050000:
Temp E_pair E_mol TotEng Press
991.848 -425.25 0 -407.301 -1.15652
Loop time of 110.387 on 1 procs for 500000 steps with 141 atoms

unfix 1
undump 1
next j
jump SELF loop_j
variable temperature equal 900+10*$j
variable temperature equal 900+10*11
variable T equal temp
variable Eatom equal etotal/atoms
fix 1 all nvt temp 1010 1010 0.1
run 50000
Step          Temp          E_pair         E_mol          TotEng         Press
6050000   1010.5955     -431.15212      0             -412.86396      8.9399682
Averages over the last 26 of 51 rows, steps 6075000 to 6100000:
Temp E_pair E_mol TotEng Press
1035.27 -424.213 0 -405.479 1.59602
Loop time of 11.0134 on 1 procs for 50000 steps with 141 atoms

unfix 1

# Statistical step
fix 2 all ave/time 100 5 1000 v_T v_Eatom file data_ave1010.txt
dump 1 all atom 5000 fusion_1010.atom
fix 1 all nvt temp 1010 1010 0.1
run 500000
Step          Temp          E_pair         E_mol          TotEng         Press
6100000   1197.4579     -422.89337      0             -401.22367      2.1640709
Averages over the last 251 of 501 rows, steps 6350000 to 6600000:
Temp E_pair E_mol TotEng Press
1013.14 -424.854 0 -406.519 0.592027
Loop time of 110.279 on 1 procs for 500000 steps with 141 atoms

unfix 1
undump 1
next j
jump SELF loop_j
variable temperature equal 900+10*$j
variable temperature equal 900+10*12
variable T equal temp
variable Eatom equal etotal/atoms
fix 1 all nvt temp 1020 1020 0.1
run 50000
Step          Temp          E_pair         E_mol          TotEng         Press
6600000   892.97588     -423.95141      0             -407.79174     -0.7536189
Averages over the last 26 of 51 rows, steps 6625000 to 6650000:
Temp E_pair E_mol TotEng Press
984.856 -424.165 0 -406.343 -3.51942
Loop time of 10.9562 on 1 procs for 50000 steps with 141 atoms

unfix 1

# Statistical step
fix 2 all ave/time 100 5 1000 v_T v_Eatom file data_ave1020.txt
dump 1 all atom 5000 fusion_1020.atom
fix 1 all nvt temp 1020 1020 0.1
run 500000
Step          Temp          E_pair         E_mol          TotEng         Press
6650000   1032.9402     -424.60778      0             -405.91526     -10.15365
Averages over the last 251 of 501 rows, steps 6900000 to 7150000:
Temp E_pair E_mol TotEng Press
1026.45 -424.708 0 -406.133 0.858957
Loop time of 110.377 on 1 procs for 500000 steps with 141 atoms

unfix 1
undump 1
next j
jump SELF loop_j
variable temperature equal 900+10*$j
variable temperature equal 900+10*13
variable T equal temp
variable Eatom equal etotal/atoms
fix 1 all nvt temp 1030 1030 0.1
run 50000
Step          Temp          E_pair         E_mol          TotEng         Press
7150000   1065.948      -426.40573      0             -407.11589     -4.1566993
Averages over the last 26 of 51 rows, steps 7175000 to 7200000:
Temp E_pair E_mol TotEng Press
1034.7 -423.756 0 -405.031 0.234441
Loop time of 10.9559 on 1 procs for 50000 steps with 141 atoms

unfix 1

# Statistical step
fix 2 all ave/time 100 5 1000 v_T v_Eatom file data_ave1030.txt
dump 1 all atom 5000 fusion_1030.atom
fix 1 all nvt temp 1030 1030 0.1
run 500000
Step          Temp          E_pair         E_mol          TotEng         Press
7200000   967.49319     -426.54003      0             -409.03186      6.3810524
Averages over the last 251 of 501 rows, steps 7450000 to 7700000:
Temp E_pair E_mol TotEng Press
1038.66 -424.223 0 -405.427 0.376968
Loop time of 109.547 on 1 procs for 500000 steps with 141 atoms

unfix 1
undump 1
next j
jump SELF loop_j
variable temperature equal 900+10*$j
variable temperature equal 900+10*14
variable T equal temp
variable Eatom equal etotal/atoms
fix 1 all nvt temp 1040 1040 0.1
run 50000
Step          Temp          E_pair         E_mol          TotEng         Press
7700000   948.71271     -421.95748      0             -404.78918      10.431088
Averages over the last 26 of 51 rows, steps 7725000 to 7750000:
Temp E_pair E_mol TotEng Press
1030.17 -423.623 0 -404.98 0.949345
Loop time of 10.9409 on 1 procs for 50000 steps with 141 atoms

unfix 1

# Statistical step
fix 2 all ave/time 100 5 1000 v_T v_Eatom file data_ave1040.txt
dump 1 all atom 5000 fusion_1040.atom
fix 1 all nvt temp 1040 1040 0.1
run 500000
Step          Temp          E_pair         E_mol          TotEng         Press
7750000   934.74261     -424.21291      0             -407.29742      10.626739
Averages over the last 251 of 501 rows, steps 8000000 to 8250000:
Temp E_pair E_mol TotEng Press
1033.84 -423.753 0 -405.045 0.132308
Loop time of 108.984 on 1 procs for 500000 steps with 141 atoms

unfix 1
undump 1
next j
jump SELF loop_j
variable temperature equal 900+10*$j
variable temperature equal 900+10*15
variable T equal temp
variable Eatom equal etotal/atoms
fix 1 all nvt temp 1050 1050 0.1
run 50000
Step          Temp          E_pair         E_mol          TotEng         Press
8250000   1009.2226     -423.18978      0             -404.92647     -14.687137
Averages over the last 26 of 51 rows, steps 8275000 to 8300000:
Temp E_pair E_mol TotEng Press
1048.26 -424.024 0 -405.055 0.588921
Loop time of 10.889 on 1 procs for 50000 steps with 141 atoms

unfix 1

# Statistical step
fix 2 all ave/time 100 5 1000 v_T v_Eatom file data_ave1050.txt
dump 1 all atom 5000 fusion_1050.atom
fix 1 all nvt temp 1050 1050 0.1
run 500000
Step          Temp          E_pair         E_mol          TotEng         Press
8300000   1127.9465     -421.80407      0             -401.39228      4.6688812
Averages over the last 251 of 501 rows, steps 8550000 to 8800000:
Temp E_pair E_mol TotEng Press
1047.75 -423.59 0 -404.63 -0.538719
Loop time of 109.089 on 1 procs for 500000 steps with 141 atoms

unfix 1
undump 1
next j
jump SELF loop_j
variable temperature equal 900+10*$j
variable temperature equal 900+10*16
variable T equal temp
variable Eatom equal etotal/atoms
fix 1 all nvt temp 1060 1060 0.1
run 50000
Step          Temp          E_pair         E_mol          TotEng         Press
8800000   1046.5283     -421.42628      0             -402.48787     -7.1752712
Averages over the last 26 of 51 rows, steps 8825000 to 8850000:
Temp E_pair E_mol TotEng Press
1033.98 -422.886 0 -404.174 -0.15576
Loop time of 10.8968 on 1 procs for 50000 steps with 141 atoms

unfix 1

# Statistical step
fix 2 all ave/time 100 5 1000 v_T v_Eatom file data_ave1060.txt
dump 1 all atom 5000 fusion_1060.atom
fix 1 all nvt temp 1060 1060 0.1
run 500000
Step          Temp          E_pair         E_mol          TotEng         Press
8850000   1051.7043     -423.51875      0             -404.48667     -10.635912
Averages over the last 251 of 501 rows, steps 9100000 to 9350000:
Temp E_pair E_mol TotEng Press
1064.8 -423.243 0 -403.974 1.2607
Loop time of 109.015 on 1 procs for 500000 steps with 141 atoms

unfix 1
undump 1
next j
jump SELF loop_j
variable temperature equal 900+10*$j
variable temperature equal 900+10*17
variable T equal temp
variable Eatom equal etotal/atoms
fix 1 all nvt temp 1070 1070 0.1
run 50000
Step          Temp          E_pair         E_mol          TotEng         Press
9350000   1170.8207     -426.26024      0             -405.07257      9.4295669
Averages over the last 26 of 51 rows, steps 9375000 to 9400000:
Temp E_pair E_mol TotEng Press
1078.07 -423.603 0 -404.094 0.594871
Loop time of 10.9047 on 1 procs for 50000 steps with 141 atoms

unfix 1

# Statistical step
fix 2 all ave/time 100 5 1000 v_T v_Eatom file data_ave1070.txt
dump 1 all atom 5000 fusion_1070.atom
fix 1 all nvt temp 1070 1070 0.1
run 500000
Step          Temp          E_pair         E_mol          TotEng         Press
9400000   975.65681     -424.13536      0             -406.47946     -0.1729291
Averages over the last 251 of 501 rows, steps 9650000 to 9900000:
Temp E_pair E_mol TotEng Press
1072.11 -423.179 0 -403.778 -0.408968
Loop time of 108.904 on 1 procs for 500000 steps with 141 atoms

unfix 1
undump 1
next j
jump SELF loop_j
variable temperature equal 900+10*$j
variable temperature equal 900+10*18
variable T equal temp
variable Eatom equal etotal/atoms
fix 1 all nvt temp 1080 1080 0.1
run 50000
Step          Temp          E_pair         E_mol          TotEng         Press
9900000   1159.1616     -421.95232      0             -400.97564     -4.8015778
Averages over the last 26 of 51 rows, steps 9925000 to 9950000:
Temp E_pair E_mol TotEng Press
1086.16 -422.747 0 -403.092 1.12484
Loop time of 10.8896 on 1 procs for 50000 steps with 141 atoms

unfix 1

# Statistical step
fix 2 all ave/time 100 5 1000 v_T v_Eatom file data_ave1080.txt
dump 1 all atom 5000 fusion_1080.atom
fix 1 all nvt temp 1080 1080 0.1
run 500000
Step          Temp          E_pair         E_mol          TotEng         Press
9950000   1060.9494     -425.38695      0             -406.18756     -5.2958647
Averages over the last 251 of 501 rows, steps 10200000 to 10450000:
Temp E_pair E_mol TotEng Press
1066.34 -422.642 0 -403.345 -1.69041
Loop time of 108.739 on 1 procs for 500000 steps with 141 atoms

unfix 1
undump 1
next j
jump SELF loop_j
variable temperature equal 900+10*$j
variable temperature equal 900+10*19
variable T equal temp
variable Eatom equal etotal/atoms
fix 1 all nvt temp 1090 1090 0.1
run 50000
Step          Temp          E_pair         E_mol          TotEng         Press
10450000   1070.2413     -423.19623      0             -403.8287      -0.47656421
Averages over the last 26 of 51 rows, steps 10475000 to 10500000:
Temp E_pair E_mol TotEng Press
1090.14 -421.56 0 -401.832 -2.39648
Loop time of 10.8807 on 1 procs for 50000 steps with 141 atoms

unfix 1

# Statistical step
fix 2 all ave/time 100 5 1000 v_T v_Eatom file data_ave1090.txt
dump 1 all atom 5000 fusion_1090.atom
fix 1 all nvt temp 1090 1090 0.1
run 500000
Loop time of 108.584 on 1 procs for 500000 steps with 141 atoms

unfix 1
undump 1
next j
jump SELF loop_j
variable temperature equal 900+10*$j
variable temperature equal 900+10*20
variable T equal temp
variable Eatom equal etotal/atoms
fix 1 all nvt temp 1100 1100 0.1
run 50000
Loop time of 10.8198 on 1 procs for 50000 steps with 141 atoms

unfix 1

# Statistical step
fix 2 all ave/time 100 5 1000 v_T v_Eatom file data_ave1100.txt
dump 1 all atom 5000 fusion_1100.atom
fix 1 all nvt temp 1100 1100 0.1
run 500000
Loop time of 108.104 on 1 procs for 500000 steps with 141 atoms

unfix 1
undump 1
next j
jump SELF loop_j
