LAMMPS (2 Aug 2023 - Update 3)
units lj
boundary p p p
atom_style atomic

lattice fcc 1.073
Lattice spacing in x,y,z = 1.5505535 1.5505535 1.5505535
region box block 0 10 0 10 0 10
create_box 1 box
Created orthogonal box = (0 0 0) to (15.505535 15.505535 15.505535)
create_atoms 1 box
Created 4000 atoms
mass 1 1.0

pair_style lj/cut 5.0
pair_coeff 1 1 1.0 1.0 5.0
velocity all create 0.01 87287

timestep 0.005

# Equilibrium step
fix 1 all nvt temp 0.85 0.85 0.2
run 50000
Generated 0 of 0 mixed pair_coeff terms from geometric mixing rule
Step          Temp          E_pair         E_mol          TotEng         Press
0   0.01          -8.5277019      0             -8.5127056     -1.0342571
Loop time of 1088.47 on 1 procs for 50000 steps with 4000 atoms

unfix 1

# Heating step
reset_timestep 0
thermo 1000
thermo_style custom step temp pe etotal press vol
fix 1 all npt temp 0.85 0.01 1.0 iso 0 0 1.0
dump 1 all atom 10000 quench.lammpstrj
run 1000000
Generated 0 of 0 mixed pair_coeff terms from geometric mixing rule
Step          Temp          PotEng         TotEng         Press          Volume
0   0.83957762    -7.3552411     -6.0961895      6.4268397      3727.8658
Averages over the last 501 of 1001 rows, steps 500000 to 1000000:
Temp PotEng TotEng Press Volume
0.220298 -8.02298 -7.69262 -0.00214401 3845.06
Loop time of 17877.3 on 1 procs for 1000000 steps with 4000 atoms
