LAMMPS (15 May 2019)
# 2d Lennard-Jones gas
#---------------Initialize Simulation -------------------------
units lj
dimension 2
boundary p p p
atom_style atomic

#-------------- Create Atoms Initial Conditions----------------
lattice hex 1.0
Lattice spacing in x,y,z = 1.07457 1.86121 1.07457
region box block 0 20 0 10 -0.1 0.1
create_box 1 box
Created orthogonal box = (0 0 -0.107457) to (21.4914 18.6121 0.107457)
region 2 block 5 15 0 10 -0.1 0.1
create_atoms 1 region 2
Created 210 atoms
mass 1 1.0
velocity all create 2.5 87287

#---------------- Define Interatomic Potential ----------------
pair_style lj/cut 2.5
pair_coeff 1 1 1.0 1.0 2.5
neighbor 0.3 bin
neigh_modify every 20 delay 0 check no
fix 1 all nvt temp 0.5 0.5 0.01
fix 2 all enforce2d

#--------------- Run MD Simulation ----------------------------
dump 1 all custom 100 toEquil.lammpstrj id type x y z vx vy vz
thermo 500
run 10000
  update every 20 steps, delay 0 steps, check no
Step Temp E_pair E_mol TotEng Press
0          2.5   -2.9184258            0  -0.43033057    4.1885121
Averages over the last 11 of 21 rows, steps 5000 to 10000:
Temp E_pair E_mol TotEng Press
0.509823 -1.75608 0 -1.24869 0.024951
Loop time of 0.38917 on 1 procs for 10000 steps with 210 atoms
