LAMMPS (15 May 2019)
#---------------Initialize Simulation -----------------------#
units lj
dimension 2
boundary p p p
atom_style atomic
variable t equal 0.5

#-------------- Create Atoms Initial Conditions------------- #
lattice sq 1.0
Lattice spacing in x,y,z = 1 1 1
region box block 0 100 0 100 -0.5 0.5
create_box 2 box
Created orthogonal box = (0 0 -0.5) to (100 100 0.5)
create_atoms 1 random 2500 12345 box
Created 2500 atoms
create_atoms 2 random 2500 54321 box
Created 2500 atoms
mass 1 1.0
mass 2 1.0

#---------------- Define Interatomic Potential --------------#
pair_style hybrid lj/cut 2.5 soft 5.0
pair_coeff 1 1 lj/cut 1.0 1.0 2.5
pair_coeff 2 2 lj/cut 1.0 1.0 2.5
pair_coeff 1 2 soft 5.0

#--------------- Run MD Simulation --------------------------#
compute eng all pe/atom
compute eatoms all reduce sum c_eng
thermo_style custom step temp epair etotal press c_eatoms
thermo 1000
dump id all atom 100 dump.lammpstrj
minimize 1e-4 1e-6 1000 10000
  update every 1 steps, delay 0 steps, check yes
Step Temp E_pair TotEng Press c_eatoms
0            0 5.0637488e+15 5.0637488e+15 1.5191246e+16 5.0637488e+15
Loop time of 5.32264 on 1 procs for 943 steps with 5000 atoms

Minimization stats:
  Stopping criterion = energy tolerance
  Energy initial, next-to-last, final =
  Force two-norm initial, final = 1.56747e+22 25.8836
  Force max component initial, final = 1.08139e+22 8.98549
  Final line search alpha, max atom move = 0.00465055 0.0417874
  Iterations, force evaluations = 943 1520

velocity all create $t 87287
velocity all create 0.5 87287
fix nvt all nvt temp $t $t 0.01
fix nvt all nvt temp 0.5 $t 0.01
fix nvt all nvt temp 0.5 0.5 0.01
run 50000
  update every 1 steps, delay 10 steps, check yes
Step Temp E_pair TotEng Press c_eatoms
943          0.5   -2.1896733   -1.6897733     2.875299   -2.1896733
Averages over the last 26 of 52 rows, steps 26000 to 50943:
Temp E_pair TotEng Press c_eatoms
0.497634 -1.91499 -1.41746 0.15715 -1.91499
Loop time of 46.962 on 1 procs for 50000 steps with 5000 atoms
