LAMMPS (2 Aug 2023 - Update 3)
variable T index 300 400 500 600 700 800 900 1000
label T_loop

units metal
boundary p p p
atom_style atomic

# Create lattice
lattice fcc 3.62
Lattice spacing in x,y,z = 3.62 3.62 3.62
region box block 0 8 0 8 0 8
create_box 1 box
Created orthogonal box = (0 0 0) to (28.96 28.96 28.96)
create_atoms 1 box
Created 2048 atoms

# Set interatomic potential
pair_style eam
pair_coeff 1 1 Cu_u3.eam
Reading eam potential file Cu_u3.eam with DATE: 2007-06-11

# Reset timestep
reset_timestep 0

# Initialize velocity
velocity all create 300 87287 dist gaussian

# Equilibrate using NPT ensemble
fix 1 all npt temp 300 300 $(100*dt) iso 0 0 1
fix 1 all npt temp 300 300 0.10000000000000000555 iso 0 0 1

# Define thermo output
thermo_style custom step temp epair press lx ly lz
thermo 1000

# Define temperature, length and volume computation
compute actual_T all temp
variable Lx equal lx
variable V equal vol

# Average properties over time and write to a single file
fix 2 all ave/time 100 10 10000 c_actual_T v_Lx v_V file thermal_expansion_data.300.txt

# Run simulation
run 10000
Step          Temp          E_pair         Press            Lx             Ly             Lz
0   300           -7249.7408     -2201.8885      28.96          28.96          28.96
Averages over the last 6 of 11 rows, steps 5000 to 10000:
Temp E_pair Press Lx Ly Lz
300.201 -7167.93 33.7763 29.0622 29.0622 29.0622
Loop time of 27.9455 on 1 procs for 10000 steps with 2048 atoms

# Unfix the NPT ensemble
unfix 1

clear
next T
jump SELF T_loop

units metal
boundary p p p
atom_style atomic

# Create lattice
lattice fcc 3.62
Lattice spacing in x,y,z = 3.62 3.62 3.62
region box block 0 8 0 8 0 8
create_box 1 box
Created orthogonal box = (0 0 0) to (28.96 28.96 28.96)
create_atoms 1 box
Created 2048 atoms

# Set interatomic potential
pair_style eam
pair_coeff 1 1 Cu_u3.eam
Reading eam potential file Cu_u3.eam with DATE: 2007-06-11

# Reset timestep
reset_timestep 0

# Initialize velocity
velocity all create 400 87287 dist gaussian

# Equilibrate using NPT ensemble
fix 1 all npt temp 400 400 $(100*dt) iso 0 0 1
fix 1 all npt temp 400 400 0.10000000000000000555 iso 0 0 1

# Define thermo output
thermo_style custom step temp epair press lx ly lz
thermo 1000

# Define temperature, length and volume computation
compute actual_T all temp
variable Lx equal lx
variable V equal vol

# Average properties over time and write to a single file
fix 2 all ave/time 100 10 10000 c_actual_T v_Lx v_V file thermal_expansion_data.400.txt

# Run simulation
run 10000
Step          Temp          E_pair         Press            Lx             Ly             Lz
0   400           -7249.7408     -1038.2826      28.96          28.96          28.96
Averages over the last 6 of 11 rows, steps 5000 to 10000:
Temp E_pair Press Lx Ly Lz
394.821 -7139.23 311.944 29.1094 29.1094 29.1094
Loop time of 28.265 on 1 procs for 10000 steps with 2048 atoms

# Unfix the NPT ensemble
unfix 1

clear
next T
jump SELF T_loop

units metal
boundary p p p
atom_style atomic

# Create lattice
lattice fcc 3.62
Lattice spacing in x,y,z = 3.62 3.62 3.62
region box block 0 8 0 8 0 8
create_box 1 box
Created orthogonal box = (0 0 0) to (28.96 28.96 28.96)
create_atoms 1 box
Created 2048 atoms

# Set interatomic potential
pair_style eam
pair_coeff 1 1 Cu_u3.eam
Reading eam potential file Cu_u3.eam with DATE: 2007-06-11

# Reset timestep
reset_timestep 0

# Initialize velocity
velocity all create 500 87287 dist gaussian

# Equilibrate using NPT ensemble
fix 1 all npt temp 500 500 $(100*dt) iso 0 0 1
fix 1 all npt temp 500 500 0.10000000000000000555 iso 0 0 1

# Define thermo output
thermo_style custom step temp epair press lx ly lz
thermo 1000

# Define temperature, length and volume computation
compute actual_T all temp
variable Lx equal lx
variable V equal vol

# Average properties over time and write to a single file
fix 2 all ave/time 100 10 10000 c_actual_T v_Lx v_V file thermal_expansion_data.500.txt

# Run simulation
run 10000
Step          Temp          E_pair         Press            Lx             Ly             Lz
0   500           -7249.7408      125.32331      28.96          28.96          28.96
Averages over the last 6 of 11 rows, steps 5000 to 10000:
Temp E_pair Press Lx Ly Lz
497.328 -7111.38 749.183 29.1559 29.1559 29.1559
Loop time of 28.4917 on 1 procs for 10000 steps with 2048 atoms

# Unfix the NPT ensemble
unfix 1

clear
next T
jump SELF T_loop

units metal
boundary p p p
atom_style atomic

# Create lattice
lattice fcc 3.62
Lattice spacing in x,y,z = 3.62 3.62 3.62
region box block 0 8 0 8 0 8
create_box 1 box
Created orthogonal box = (0 0 0) to (28.96 28.96 28.96)
create_atoms 1 box
Created 2048 atoms

# Set interatomic potential
pair_style eam
pair_coeff 1 1 Cu_u3.eam
Reading eam potential file Cu_u3.eam with DATE: 2007-06-11

# Reset timestep
reset_timestep 0

# Initialize velocity
velocity all create 600 87287 dist gaussian

# Equilibrate using NPT ensemble
fix 1 all npt temp 600 600 $(100*dt) iso 0 0 1
fix 1 all npt temp 600 600 0.10000000000000000555 iso 0 0 1

# Define thermo output
thermo_style custom step temp epair press lx ly lz
thermo 1000

# Define temperature, length and volume computation
compute actual_T all temp
variable Lx equal lx
variable V equal vol

# Average properties over time and write to a single file
fix 2 all ave/time 100 10 10000 c_actual_T v_Lx v_V file thermal_expansion_data.600.txt

# Run simulation
run 10000
Step          Temp          E_pair         Press            Lx             Ly             Lz
0   600           -7249.7408      1288.9292      28.96          28.96          28.96
Averages over the last 6 of 11 rows, steps 5000 to 10000:
Temp E_pair Press Lx Ly Lz
605.887 -7080.97 -671.728 29.221 29.221 29.221
Loop time of 33.4892 on 1 procs for 10000 steps with 2048 atoms

# Unfix the NPT ensemble
unfix 1

clear
next T
jump SELF T_loop

units metal
boundary p p p
atom_style atomic

# Create lattice
lattice fcc 3.62
Lattice spacing in x,y,z = 3.62 3.62 3.62
region box block 0 8 0 8 0 8
create_box 1 box
Created orthogonal box = (0 0 0) to (28.96 28.96 28.96)
create_atoms 1 box
Created 2048 atoms

# Set interatomic potential
pair_style eam
pair_coeff 1 1 Cu_u3.eam
Reading eam potential file Cu_u3.eam with DATE: 2007-06-11

# Reset timestep
reset_timestep 0

# Initialize velocity
velocity all create 700 87287 dist gaussian

# Equilibrate using NPT ensemble
fix 1 all npt temp 700 700 $(100*dt) iso 0 0 1
fix 1 all npt temp 700 700 0.10000000000000000555 iso 0 0 1

# Define thermo output
thermo_style custom step temp epair press lx ly lz
thermo 1000

# Define temperature, length and volume computation
compute actual_T all temp
variable Lx equal lx
variable V equal vol

# Average properties over time and write to a single file
fix 2 all ave/time 100 10 10000 c_actual_T v_Lx v_V file thermal_expansion_data.700.txt

# Run simulation
run 10000
Step          Temp          E_pair         Press            Lx             Ly             Lz
0   700           -7249.7408      2452.5351      28.96          28.96          28.96
Averages over the last 6 of 11 rows, steps 5000 to 10000:
Temp E_pair Press Lx Ly Lz
705.736 -7051.71 -152.481 29.2697 29.2697 29.2697
Loop time of 33.9479 on 1 procs for 10000 steps with 2048 atoms

# Unfix the NPT ensemble
unfix 1

clear
next T
jump SELF T_loop

units metal
boundary p p p
atom_style atomic

# Create lattice
lattice fcc 3.62
Lattice spacing in x,y,z = 3.62 3.62 3.62
region box block 0 8 0 8 0 8
create_box 1 box
Created orthogonal box = (0 0 0) to (28.96 28.96 28.96)
create_atoms 1 box
Created 2048 atoms

# Set interatomic potential
pair_style eam
pair_coeff 1 1 Cu_u3.eam
Reading eam potential file Cu_u3.eam with DATE: 2007-06-11

# Reset timestep
reset_timestep 0

# Initialize velocity
velocity all create 800 87287 dist gaussian

# Equilibrate using NPT ensemble
fix 1 all npt temp 800 800 $(100*dt) iso 0 0 1
fix 1 all npt temp 800 800 0.10000000000000000555 iso 0 0 1

# Define thermo output
thermo_style custom step temp epair press lx ly lz
thermo 1000

# Define temperature, length and volume computation
compute actual_T all temp
variable Lx equal lx
variable V equal vol

# Average properties over time and write to a single file
fix 2 all ave/time 100 10 10000 c_actual_T v_Lx v_V file thermal_expansion_data.800.txt

# Run simulation
run 10000
Step          Temp          E_pair         Press            Lx             Ly             Lz
0   800           -7249.7408      3616.1409      28.96          28.96          28.96
Averages over the last 6 of 11 rows, steps 5000 to 10000:
Temp E_pair Press Lx Ly Lz
792.905 -7019.42 -124.421 29.3281 29.3281 29.3281
Loop time of 34.4421 on 1 procs for 10000 steps with 2048 atoms

# Unfix the NPT ensemble
unfix 1

clear
next T
jump SELF T_loop

units metal
boundary p p p
atom_style atomic

# Create lattice
lattice fcc 3.62
Lattice spacing in x,y,z = 3.62 3.62 3.62
region box block 0 8 0 8 0 8
create_box 1 box
Created orthogonal box = (0 0 0) to (28.96 28.96 28.96)
create_atoms 1 box
Created 2048 atoms

# Set interatomic potential
pair_style eam
pair_coeff 1 1 Cu_u3.eam
Reading eam potential file Cu_u3.eam with DATE: 2007-06-11

# Reset timestep
reset_timestep 0

# Initialize velocity
velocity all create 900 87287 dist gaussian

# Equilibrate using NPT ensemble
fix 1 all npt temp 900 900 $(100*dt) iso 0 0 1
fix 1 all npt temp 900 900 0.10000000000000000555 iso 0 0 1

# Define thermo output
thermo_style custom step temp epair press lx ly lz
thermo 1000

# Define temperature, length and volume computation
compute actual_T all temp
variable Lx equal lx
variable V equal vol

# Average properties over time and write to a single file
fix 2 all ave/time 100 10 10000 c_actual_T v_Lx v_V file thermal_expansion_data.900.txt

# Run simulation
run 10000
Step          Temp          E_pair         Press            Lx             Ly             Lz
0   900           -7249.7408      4779.7468      28.96          28.96          28.96
Averages over the last 6 of 11 rows, steps 5000 to 10000:
Temp E_pair Press Lx Ly Lz
886.455 -6983.61 -2793.31 29.4122 29.4122 29.4122
Loop time of 34.4806 on 1 procs for 10000 steps with 2048 atoms

# Unfix the NPT ensemble
unfix 1

clear
next T
jump SELF T_loop

units metal
boundary p p p
atom_style atomic

# Create lattice
lattice fcc 3.62
Lattice spacing in x,y,z = 3.62 3.62 3.62
region box block 0 8 0 8 0 8
create_box 1 box
Created orthogonal box = (0 0 0) to (28.96 28.96 28.96)
create_atoms 1 box
Created 2048 atoms

# Set interatomic potential
pair_style eam
pair_coeff 1 1 Cu_u3.eam
Reading eam potential file Cu_u3.eam with DATE: 2007-06-11

# Reset timestep
reset_timestep 0

# Initialize velocity
velocity all create 1000 87287 dist gaussian

# Equilibrate using NPT ensemble
fix 1 all npt temp 1000 1000 $(100*dt) iso 0 0 1
fix 1 all npt temp 1000 1000 0.10000000000000000555 iso 0 0 1

# Define thermo output
thermo_style custom step temp epair press lx ly lz
thermo 1000

# Define temperature, length and volume computation
compute actual_T all temp
variable Lx equal lx
variable V equal vol

# Average properties over time and write to a single file
fix 2 all ave/time 100 10 10000 c_actual_T v_Lx v_V file thermal_expansion_data.1000.txt

# Run simulation
run 10000
Step          Temp          E_pair         Press            Lx             Ly             Lz
0   1000          -7249.7408      5943.3527      28.96          28.96          28.96
Averages over the last 6 of 11 rows, steps 5000 to 10000:
Temp E_pair Press Lx Ly Lz
1002.93 -6954.2 1879.18 29.4337 29.4337 29.4337
Loop time of 34.2924 on 1 procs for 10000 steps with 2048 atoms

# Unfix the NPT ensemble
unfix 1

clear
next T
jump SELF T_loop
