LAMMPS (2 Aug 2023 - Update 3)
units metal
boundary p p p
atom_style atomic

variable Tstart equal 10.0
variable Tstop equal 1000
variable Tdamp equal 0.2

lattice fcc 3.62
Lattice spacing in x,y,z = 3.62 3.62 3.62
region simbox block 0 8 0 8 0 8
create_box 1 simbox
Created orthogonal box = (0 0 0) to (28.96 28.96 28.96)
create_atoms 1 box
Created 2048 atoms

pair_style eam
pair_coeff 1 1 Cu_u3.eam
Reading eam potential file Cu_u3.eam with DATE: 2007-06-11

velocity all create 10 825577 dist gaussian

# Equilibrium step
fix 1 all nvt temp 10 10 0.2
thermo 100
run 5000
Step          Temp          E_pair         E_mol          TotEng         Press
0   10            -7249.7408      0             -7247.0948     -5576.3455
Averages over the last 26 of 51 rows, steps 2500 to 5000:
Temp E_pair E_mol TotEng Press
9.97984 -7247.09 0 -7244.45 -5024.23
Loop time of 13.3442 on 1 procs for 5000 steps with 2048 atoms

unfix 1
reset_timestep 0
thermo 1000
thermo_style custom step temp pe etotal

# Heating step
print "Production steps started!"
Production steps started!
fix 2 all nvt temp 10 1000 0.2
run 120000
Step          Temp          PotEng         TotEng
0   9.7284334     -7247.0886     -7244.5146
Averages over the last 61 of 121 rows, steps 60000 to 120000:
Temp PotEng TotEng
752.993 -7051.09 -6851.85
Loop time of 409.679 on 1 procs for 120000 steps with 2048 atoms

print "Simulation complete!"
Simulation complete!
