LAMMPS (2 Aug 2023 - Update 3)
# UNITS
units real
timestep 1
variable fpress equal 0.000101325        # atm -> GPa
variable fenergy equal 0.043             # kcal/mole -> eV

# GRAPHENE SHEET
dimension 3
boundary p p f
atom_style charge
read_data graphene.dat
Reading data file ...
  orthogonal box = (0 0 -16.746485) to (85.26 49.22344 16.746485)
  reading atoms ...
  1600 atoms
  reading velocities ...
  1600 velocities
pair_style reax/c NULL checkqeq no
pair_coeff * * ffield.reax.cho C
Reading potential file ffield.reax.cho with DATE: 2011-02-18

# TEMPERATURE SETTINGS
variable temp equal 300
variable seed equal 1717
velocity all create 300 1717 dist uniform

# EQUILIBRATION
fix fnpt all npt temp 300 300 10 x 0 0 500 y 0 0 500
thermo 100
run 1000

CITE-CITE-CITE-CITE-CITE-CITE-CITE-CITE-CITE-CITE-CITE-CITE-CITE

Your simulation uses code contributions which should be cited:

- pair reaxff command: doi:10.1016/j.parco.2011.08.005

@Article{Aktulga12,
 author = {H. M. Aktulga and J. C. Fogarty and S. A. Pandit and A. Y. Grama},
 title = {Parallel Reactive Molecular Dynamics: {N}umerical Methods and Algorithmic Techniques},
 journal = {Parallel Computing},
 year =    2012,
 volume =  38,
 number =  {4--5},
 pages =   {245--259}
}

CITE-CITE-CITE-CITE-CITE-CITE-CITE-CITE-CITE-CITE-CITE-CITE-CITE

Step          Temp          E_pair         E_mol          TotEng         Press          Volume
0   300           -301007.44      0             -299577.55      173841.79      140562.98
Averages over the last 6 of 11 rows, steps 500 to 1000:
Temp E_pair E_mol TotEng Press Volume
306.06 -314808 0 -313349 -338.408 145152
Loop time of 43.6483 on 1 procs for 1000 steps with 1600 atoms

# OUTPUT
# assume that the thickness of monolayer graphene is 3.35A.
variable tmp equal lx
variable lx0 equal 86.6453620717631
variable tmp equal ly
variable ly0 equal 50.0205019194627
variable Eavg equal etotal/atoms*0.043
variable pe equal pe/atoms*0.043
variable ke equal ke/atoms*0.043
variable strainx equal (lx-86.6453620717631)/86.6453620717631
variable strainy equal (ly-50.0205019194627)/50.0205019194627
variable stressx equal -pxx*(lz/3.35)*0.000101325
variable stressy equal -pyy*(lz/3.35)*0.000101325
thermo_style custom step time temp etotal press v_Eavg v_pe v_ke v_strainx v_stressx v_strainy v_stressy

# DEFORMATION
fix boxdeform all deform 1 x scale 2 remap x
fix fnpt all npt temp 300 300 10 y 0 0 500
fix output all ave/time 1 100 100 v_strainx v_stressx v_strainy v_stressy file stress_strain.txt
dump 1 all atom 10 dump.lammpstrj
fix stop all halt 100 v_strainx > 0.7  error  continue
thermo 100
run 10000
Step          Time           Temp          TotEng         Press          v_Eavg          v_pe           v_ke        v_strainx      v_stressx      v_strainy      v_stressy
1000   1000           307.78871     -313359.39     -1100.9798     -8.4215335     -8.4609596      0.039426109   -4.9203515e-16  1.7693713      2.841006e-16   1.562374
Averages over the last 36 of 71 rows, steps 4500 to 8000:
Temp TotEng Press v_Eavg v_pe v_ke v_strainx v_stressx v_strainy v_stressy
309.769 -302252 -1659.02 -8.12302 -8.1627 0.0396797 0.525 4.89088 -0.0696765 0.178801
Fix halt condition for fix-id stop met on step 8100 with value 0.7099999999999989 (src/fix_halt.cpp:237)
Loop time of 313.653 on 1 procs for 7100 steps with 1600 atoms
