LAMMPS (2 Aug 2023 - Update 3)
units lj
atom_style atomic
lattice fcc 0.6
Lattice spacing in x,y,z = 1.8820721 1.8820721 1.8820721
region box block 0 10 0 10 0 20
create_box 1 box
Created orthogonal box = (0 0 0) to (18.820721 18.820721 37.641441)
create_atoms 1 box
Created 8000 atoms
mass 1 1.0
velocity all create 1.35 71717
pair_style lj/cut 2.5
pair_coeff 1 1 1.0 1.0
neighbor 0.3 bin

# 1st Equilibration run
fix 1 all nvt temp 1.35 1.35 0.5
thermo 100
run 1000
Generated 0 of 0 mixed pair_coeff terms from geometric mixing rule
Step          Temp          E_pair         E_mol          TotEng         Press
0   1.35          -4.1241917      0             -2.0994448     -3.1961613
Averages over the last 6 of 11 rows, steps 500 to 1000:
Temp E_pair E_mol TotEng Press
1.35572 -3.71138 0 -1.67806 0.815749
Loop time of 5.03007 on 1 procs for 1000 steps with 8000 atoms

velocity all scale 1.35
unfix 1

# 2nd Equilibration run
compute ke all ke/atom
variable temp atom c_ke/1.5
fix 1 all nve
compute layers all chunk/atom bin/1d z lower 0.05 units reduced
fix 2 all ave/chunk 10 100 1000 layers v_temp file profile.mp
fix 3 all thermal/conductivity 10 z 20
variable tdiff equal f_2[11][3]-f_2[1][3]
thermo_style custom step temp epair etotal f_3 v_tdiff
thermo 1000
run 20000
Generated 0 of 0 mixed pair_coeff terms from geometric mixing rule
Step          Temp          E_pair         TotEng          f_3          v_tdiff
1000   1.35          -3.7213625     -1.6966156      0              0
Averages over the last 11 of 21 rows, steps 11000 to 21000:
Temp E_pair TotEng f_3 v_tdiff
1.40624 -3.81527 -1.70617 11861.7 1.1618
Loop time of 103.778 on 1 procs for 20000 steps with 8000 atoms

# Thermal conductivity calculation
fix 3 all thermal/conductivity 10 z 20
fix ave all ave/time 1 1 1000 v_tdiff ave running
thermo_style custom step temp epair etotal f_3 v_tdiff f_ave
run 20000
Generated 0 of 0 mixed pair_coeff terms from geometric mixing rule
Step          Temp          E_pair         TotEng          f_3          v_tdiff         f_ave
21000   1.4106667     -3.8217383     -1.7060027      0              1.1911129      1.1911129
Averages over the last 11 of 21 rows, steps 31000 to 41000:
Temp E_pair TotEng f_3 v_tdiff f_ave
1.4137 -3.82819 -1.7079 11361.6 1.22252 1.20293
Loop time of 106.015 on 1 procs for 20000 steps with 8000 atoms
