LAMMPS (2 Aug 2023 - Update 3)
# Initialization
units metal
boundary p p p
atom_style atomic
timestep 0.001

# Get three Pt nanoparticles
variable A0 equal 3.9239
lattice fcc 3.9239
Lattice spacing in x,y,z = 3.9239 3.9239 3.9239
region mybox block 0 20 0 20 0 20
region sphere_pt1 sphere 7 10 8 3
region sphere_pt2 sphere 10 10 13.4 3
region sphere_pt3 sphere 13 10 8 3
create_box 1 mybox
Created orthogonal box = (0 0 0) to (78.478 78.478 78.478)
create_atoms 1 region sphere_pt1
Created 453 atoms
create_atoms 1 region sphere_pt2
Created 454 atoms
create_atoms 1 region sphere_pt3
Created 451 atoms

# Using EAM potential
pair_style eam
pair_coeff 1 1 Pt_u3.eam
Reading eam potential file Pt_u3.eam with DATE: 2007-06-11

# Output initial structure
dump 1 all cfg 1 coord.*.cfg mass type xs ys zs
run 0
Step          Temp          E_pair         E_mol          TotEng         Press
0   0             -7150.8713      0             -7150.8713     -5483.359
Loop time of 2.232e-06 on 1 procs for 0 steps with 1358 atoms

undump 1

# Define triple_neck region
region triple_neck block 7.5 12.5 5 15 9 13
group 1 dynamic all region triple_neck every 1000
dynamic group 1 defined

# Output number of atoms in triple neck region
variable N equal step
variable T equal temp
variable Natom equal count(all)
variable V equal vol/v_Natom
variable sinter_atom equal count(1)
dump 1 all xyz 1000 melt.xyz
thermo 1000

# Run in 500k, 1000k, 1400k, respectively
fix 1 all npt temp 500 500 0.1 iso 1 1 1
run 10000
Step          Temp          E_pair         E_mol          TotEng         Press          Volume
0   0             -7150.8713      0             -7150.8713     -5483.359       483330.03
Loop time of 17.2672 on 1 procs for 10000 steps with 1358 atoms

unfix 1
fix 1 all npt temp 1000 1000 0.1 iso 1 1 1
run 20000
Step          Temp          E_pair         E_mol          TotEng         Press          Volume
10000   500.38918     -7273.883       0             -7186.1117     -92.9687        506498.35
Loop time of 34.9787 on 1 procs for 20000 steps with 1358 atoms

unfix 1
fix 1 all npt temp 1400 1400 0.1 iso 1 1 1
run 30000
Step          Temp          E_pair         E_mol          TotEng         Press          Volume
30000   996.76553     -7198.3191      0             -7023.4804     -127.40158      1087185.5
Loop time of 50.9133 on 1 procs for 30000 steps with 1358 atoms

unfix 1
