LAMMPS (2 Aug 2023 - Update 3)
units lj
boundary p p p
atom_style atomic

lattice fcc 1.073
Lattice spacing in x,y,z = 1.5505535 1.5505535 1.5505535
region box block 0 10 0 10 0 10
create_box 1 box
Created orthogonal box = (0 0 0) to (15.505535 15.505535 15.505535)
create_atoms 1 box
Created 4000 atoms
mass 1 1.0

pair_style lj/cut 2.5
pair_coeff 1 1 1.0 1.0 2.5
velocity all create 0.01 87287

timestep 0.005

# Equilibrium step
fix 1 all nvt temp 0.01 0.01 0.2
run 50000
Generated 0 of 0 mixed pair_coeff terms from geometric mixing rule
Step          Temp          E_pair         E_mol          TotEng         Press
0   0.01          -8.0995117      0             -8.0845154     -0.11641384
Loop time of 109.436 on 1 procs for 50000 steps with 4000 atoms

unfix 1

# Heating step
reset_timestep 0
thermo 1000
thermo_style custom step temp pe etotal press vol
fix 1 all npt temp 0.01 0.85 1.0 iso 0 0 1.0
dump 1 all atom 10000 fusion.lammpstrj
run 1000000
Generated 0 of 0 mixed pair_coeff terms from geometric mixing rule
Step          Temp          PotEng         TotEng         Press          Volume
0   0.0099593514  -8.0845029     -8.0695676     -0.030798546    3727.8658
Averages over the last 501 of 1001 rows, steps 500000 to 1000000:
Temp PotEng TotEng Press Volume
0.639793 -6.34666 -5.38721 -0.00260196 4509.38
Loop time of 2936.92 on 1 procs for 1000000 steps with 4000 atoms
